L1001_ligand.pdbt
 OpenBabel07182410473D

 32 35  0  0  0  0  0  0  0  0999 V2000
   -1.7430   36.8810   22.9730 C   0  0  0  0  0  0  0  0  0  0  0  0
   -2.8170   36.9060   22.0710 C   0  0  0  0  0  0  0  0  0  0  0  0
   -2.9710   35.6920   21.5340 N   0  0  0  0  0  0  0  0  0  0  0  0
   -2.0280   34.8980   22.0660 C   0  0  0  0  0  0  0  0  0  0  0  0
   -1.7520   33.5360   21.8440 C   0  0  0  0  0  3  0  0  0  0  0  0
   -0.7370   32.9040   22.4940 C   0  0  0  0  0  3  0  0  0  0  0  0
    0.0490   33.5900   23.3910 C   0  0  0  0  0  0  0  0  0  0  0  0
    1.0680   33.0030   24.0590 F   0  0  0  0  0  0  0  0  0  0  0  0
   -0.2350   34.9320   23.6000 C   0  0  0  0  0  3  0  0  0  0  0  0
   -1.2650   35.6050   22.9510 C   0  0  0  0  0  0  0  0  0  0  0  0
   -3.6030   38.0990   21.8020 C   0  0  0  0  0  0  0  0  0  0  0  0
   -3.1990   38.9510   21.0000 O   0  0  0  0  0  0  0  0  0  0  0  0
   -4.8030   38.2760   22.4490 O   0  0  0  0  0  1  0  0  0  0  0  0
   -1.2940   38.0280   23.7400 C   0  0  0  0  0  2  0  0  0  0  0  0
    0.5270   38.9620   22.4090 C   0  0  0  0  0  0  0  0  0  0  0  0
   -0.2140   39.0390   21.3900 O   0  0  0  0  0  0  0  0  0  0  0  0
    0.0610   38.4430   23.6470 N   0  0  0  0  0  0  0  0  0  0  0  0
    1.0000   38.4000   24.7620 C   0  0  0  0  0  1  0  0  0  0  0  0
    1.8270   39.4010   22.3020 O   0  0  0  0  0  0  0  0  0  0  0  0
    3.7810   40.4000   21.3960 C   0  0  0  0  0  1  0  0  0  0  0  0
    2.2710   40.3930   21.4010 C   0  0  0  0  0  2  0  0  0  0  0  0
   -3.9370   35.2580   20.5700 C   0  0  0  0  0  2  0  0  0  0  0  0
   -3.3240   34.7860   19.3070 C   0  0  0  0  0  0  0  0  0  0  0  0
   -2.1400   35.2750   18.7940 C   0  0  0  0  0  3  0  0  0  0  0  0
   -1.6000   34.8000   17.6010 C   0  0  0  0  0  3  0  0  0  0  0  0
   -2.2990   33.8040   16.9310 C   0  0  0  0  0  3  0  0  0  0  0  0
   -3.4880   33.2870   17.4070 C   0  0  0  0  0  0  0  0  0  0  0  0
   -4.1660   32.3010   16.7300 C   0  0  0  0  0  3  0  0  0  0  0  0
   -5.3440   31.8120   17.2350 C   0  0  0  0  0  3  0  0  0  0  0  0
   -5.8860   32.2720   18.4110 C   0  0  0  0  0  3  0  0  0  0  0  0
   -5.1790   33.2670   19.0730 C   0  0  0  0  0  3  0  0  0  0  0  0
   -3.9910   33.7970   18.6140 C   0  0  0  0  0  0  0  0  0  0  0  0
  1 14  1  0  0  0  0
  2  1  2  0  0  0  0
  3  4  1  0  0  0  0
  3  2  1  0  0  0  0
  4 10  1  0  0  0  0
  5  4  2  0  0  0  0
  5  6  1  0  0  0  0
  6  7  2  0  0  0  0
  7  9  1  0  0  0  0
  7  8  1  0  0  0  0
 10  1  1  0  0  0  0
 10  9  2  0  0  0  0
 11  2  1  0  0  0  0
 11 13  1  0  0  0  0
 12 11  2  0  0  0  0
 15 17  1  0  0  0  0
 16 15  2  0  0  0  0
 17 14  1  0  0  0  0
 17 18  1  0  0  0  0
 19 15  1  0  0  0  0
 20 21  1  0  0  0  0
 21 19  1  0  0  0  0
 22  3  1  0  0  0  0
 23 22  1  0  0  0  0
 24 23  1  0  0  0  0
 25 24  2  0  0  0  0
 26 27  2  0  0  0  0
 26 25  1  0  0  0  0
 27 32  1  0  0  0  0
 28 29  2  0  0  0  0
 28 27  1  0  0  0  0
 29 30  1  0  0  0  0
 30 31  2  0  0  0  0
 32 31  1  0  0  0  0
 32 23  2  0  0  0  0
M  END
